&OBST XB=<%X1%>,<%X2%>,<%Y1%>,<%Y2%>,<%Z1%>,<%Z2%>, SURF_ID='<%SURF_ID%>' /